Circuit: * D:\Deli_sync_ws\Project\Current_probe\Doge_probe_deli\spice\AD8129.asc

Direct Newton iteration for .op point succeeded.
Heightened Def Con from 1.59396e-08 to 1.59396e-08
Heightened Def Con from 2.72533e-08 +to 2.72533e-08
Heightened Def Con from 2.72533e-08 ++to 2.72533e-08
Heightened Def Con from 2.72533e-08 to 2.72533e-08
Heightened Def Con from 3.11005e-08 to 3.11005e-08
Heightened Def Con from 3.49629e-08 to 3.49629e-08
Heightened Def Con from 3.49629e-08 to 3.49629e-08
Heightened Def Con from 4.07564e-08 to 4.07564e-08
Heightened Def Con from 4.07564e-08 to 4.07564e-08
Heightened Def Con from 5.48759e-08 to 5.48759e-08
Heightened Def Con from 5.48759e-08 to 5.48759e-08
Heightened Def Con from 5.48759e-08 ++++to 5.48759e-08
Heightened Def Con from 9.01463e-08 ++to 9.01463e-08
Heightened Def Con from 1.22682e-07 to 1.22682e-07
Heightened Def Con from 1.55229e-07 to 1.55229e-07
Heightened Def Con from 1.55229e-07 +to 1.55229e-07
Heightened Def Con from 1.55229e-07 to 1.55229e-07
Heightened Def Con from 1.65494e-07 to 1.65494e-07
Heightened Def Con from 1.65494e-07 to 1.65494e-07
Heightened Def Con from 1.65494e-07 ++to 1.65494e-07
Heightened Def Con from 1.80084e-07 +++to 1.80084e-07
Heightened Def Con from 1.84218e-07 to 1.84218e-07
Heightened Def Con from 1.84218e-07 +to 1.84218e-07
Heightened Def Con from 1.84218e-07 to 1.84218e-07
Heightened Def Con from 2.0268e-07 to 2.0268e-07
Heightened Def Con from 2.0519e-07 to 2.0519e-07
Heightened Def Con from 2.34985e-07 to 2.34985e-07
Heightened Def Con from 2.34985e-07 +to 2.34985e-07
Heightened Def Con from 2.34985e-07 to 2.34985e-07
Heightened Def Con from 2.41092e-07 to 2.41092e-07
Heightened Def Con from 2.43083e-07 +++to 2.43083e-07
Heightened Def Con from 2.43083e-07 to 2.43083e-07
Heightened Def Con from 2.53437e-07 to 2.53437e-07
Heightened Def Con from 2.53437e-07 to 2.53437e-07
Heightened Def Con from 2.53437e-07 to 2.53437e-07
Heightened Def Con from 2.55735e-07 to 2.55735e-07
Heightened Def Con from 2.80259e-07 to 2.80259e-07
Heightened Def Con from 2.80259e-07 ++++to 2.80259e-07
Heightened Def Con from 2.94815e-07 to 2.94815e-07
Heightened Def Con from 2.96792e-07 to 2.96792e-07
Heightened Def Con from 3.03023e-07 to 3.03023e-07
Heightened Def Con from 3.03023e-07 ++to 3.03023e-07
Heightened Def Con from 3.03023e-07 ++++to 3.03023e-07
Heightened Def Con from 3.03023e-07 to 3.03023e-07
Heightened Def Con from 3.05016e-07 +to 3.05016e-07
Heightened Def Con from 3.05016e-07 to 3.05016e-07
Heightened Def Con from 3.35262e-07 ++to 3.35262e-07
Heightened Def Con from 3.35262e-07 ++++to 3.35262e-07
Heightened Def Con from 3.37256e-07 to 3.37256e-07
Heightened Def Con from 3.55754e-07 to 3.55754e-07
Heightened Def Con from 3.59892e-07 +++++to 3.59892e-07
Heightened Def Con from 3.59892e-07 +++++to 3.59892e-07
Heightened Def Con from 3.6186e-07 +++to 3.6186e-07
Heightened Def Con from 3.6186e-07 to 3.6186e-07
Heightened Def Con from 3.6186e-07 ++to 3.6186e-07
Heightened Def Con from 3.6186e-07 to 3.6186e-07
Heightened Def Con from 3.78424e-07 to 3.78424e-07
Heightened Def Con from 3.78424e-07 +++++to 3.78424e-07
Heightened Def Con from 3.99076e-07 to 3.99076e-07
Heightened Def Con from 4.11332e-07 to 4.11332e-07
Heightened Def Con from 4.11332e-07 to 4.11332e-07
Heightened Def Con from 4.37494e-07 to 4.37494e-07
Heightened Def Con from 4.37494e-07 ++to 4.37494e-07
Heightened Def Con from 4.37494e-07 ++++to 4.37494e-07
Heightened Def Con from 4.55735e-07 to 4.55735e-07
Heightened Def Con from 4.55735e-07 to 4.55735e-07
Heightened Def Con from 4.78777e-07 to 4.78777e-07
Heightened Def Con from 4.78777e-07 to 4.78777e-07
Heightened Def Con from 4.78777e-07 ++to 4.78777e-07
Heightened Def Con from 4.78777e-07 to 4.78777e-07
Heightened Def Con from 5.07524e-07 to 5.07524e-07
Heightened Def Con from 5.23623e-07 to 5.23623e-07
Heightened Def Con from 5.23623e-07 to 5.23623e-07
Heightened Def Con from 5.23623e-07 to 5.23623e-07
Heightened Def Con from 5.31666e-07 ++++to 5.31666e-07
Heightened Def Con from 5.45822e-07 to 5.45822e-07
Heightened Def Con from 5.45822e-07 +++++to 5.45822e-07
Heightened Def Con from 5.47939e-07 to 5.47939e-07
Heightened Def Con from 5.47939e-07 ++to 5.47939e-07
Heightened Def Con from 5.47939e-07 ++++to 5.47939e-07
Heightened Def Con from 5.47939e-07 to 5.47939e-07
Heightened Def Con from 5.62326e-07 to 5.62326e-07
Heightened Def Con from 5.74736e-07 +++to 5.74736e-07
Heightened Def Con from 5.74736e-07 to 5.74736e-07
Heightened Def Con from 6.0519e-07 to 6.0519e-07
Heightened Def Con from 6.13828e-07 to 6.13828e-07
Heightened Def Con from 6.15825e-07 to 6.15825e-07
Heightened Def Con from 6.21864e-07 to 6.21864e-07
Heightened Def Con from 6.21864e-07 to 6.21864e-07
Heightened Def Con from 6.46104e-07 to 6.46104e-07
Heightened Def Con from 6.46104e-07 to 6.46104e-07
Heightened Def Con from 6.46104e-07 ++to 6.46104e-07
Heightened Def Con from 6.55735e-07 to 6.55735e-07
Heightened Def Con from 7.03893e-07 to 7.03893e-07
Heightened Def Con from 7.0519e-07 to 7.0519e-07
Heightened Def Con from 7.24045e-07 to 7.24045e-07
Heightened Def Con from 7.4015e-07 ++to 7.4015e-07
Heightened Def Con from 7.46213e-07 +++++to 7.46213e-07
Heightened Def Con from 7.55735e-07 +to 7.55735e-07
Heightened Def Con from 7.66906e-07 to 7.66906e-07
Heightened Def Con from 7.66906e-07 to 7.66906e-07
Heightened Def Con from 7.66906e-07 +++++to 7.66906e-07
Heightened Def Con from 7.66906e-07 to 7.66906e-07
Heightened Def Con from 8.0519e-07 to 8.0519e-07
Heightened Def Con from 8.10225e-07 ++to 8.10225e-07
Heightened Def Con from 8.10225e-07 ++++to 8.10225e-07
Heightened Def Con from 8.10225e-07 ++++to 8.10225e-07
Heightened Def Con from 8.24303e-07 to 8.24303e-07
Heightened Def Con from 8.24303e-07 to 8.24303e-07
Heightened Def Con from 8.24303e-07 ++++++to 8.24303e-07
Heightened Def Con from 8.32342e-07 to 8.32342e-07
Heightened Def Con from 8.32342e-07 to 8.32342e-07
Heightened Def Con from 8.32342e-07 ++++to 8.32342e-07
Heightened Def Con from 8.34375e-07 to 8.34375e-07
Heightened Def Con from 8.34375e-07 to 8.34375e-07
Heightened Def Con from 8.59002e-07 to 8.59002e-07
Heightened Def Con from 8.63144e-07 to 8.63144e-07
Heightened Def Con from 8.63144e-07 +++to 8.63144e-07
Heightened Def Con from 8.63144e-07 to 8.63144e-07
Heightened Def Con from 8.67284e-07 +to 8.67284e-07
Heightened Def Con from 8.67284e-07 +++to 8.67284e-07
Heightened Def Con from 8.67284e-07 to 8.67284e-07
Heightened Def Con from 8.75553e-07 to 8.75553e-07
Heightened Def Con from 8.75553e-07 to 8.75553e-07
Heightened Def Con from 8.75553e-07 ++++to 8.75553e-07
Heightened Def Con from 8.87938e-07 to 8.87938e-07
Heightened Def Con from 8.87938e-07 to 8.87938e-07
Heightened Def Con from 8.94042e-07 ++to 8.94042e-07
Heightened Def Con from 8.94042e-07 to 8.94042e-07
Heightened Def Con from 8.94042e-07 to 8.94042e-07
Heightened Def Con from 9.0519e-07 to 9.0519e-07
Heightened Def Con from 9.30519e-07 to 9.30519e-07
Heightened Def Con from 9.54962e-07 to 9.54962e-07
Heightened Def Con from 9.9219e-07 to 9.9219e-07
Heightened Def Con from 9.9219e-07 +++to 9.9219e-07
Heightened Def Con from 1.01473e-06 to 1.01473e-06
Heightened Def Con from 1.05117e-06 to 1.05117e-06
Heightened Def Con from 1.05117e-06 to 1.05117e-06
Heightened Def Con from 1.07603e-06 to 1.07603e-06
Heightened Def Con from 1.08017e-06 ++to 1.08017e-06
Heightened Def Con from 1.08841e-06 to 1.08841e-06
Heightened Def Con from 1.08841e-06 to 1.08841e-06
Heightened Def Con from 1.08841e-06 ++++to 1.08841e-06
Heightened Def Con from 1.11294e-06 to 1.11294e-06
Heightened Def Con from 1.12099e-06 +++++to 1.12099e-06
Heightened Def Con from 1.15134e-06 to 1.15134e-06
Heightened Def Con from 1.15134e-06 ++to 1.15134e-06
Heightened Def Con from 1.1866e-06 to 1.1866e-06
Heightened Def Con from 1.1866e-06 ++to 1.1866e-06
Heightened Def Con from 1.19897e-06 +++to 1.19897e-06
Heightened Def Con from 1.20306e-06 to 1.20306e-06
Heightened Def Con from 1.20306e-06 ++to 1.20306e-06
Heightened Def Con from 1.20306e-06 +++++to 1.20306e-06
Heightened Def Con from 1.20306e-06 +++++to 1.20306e-06
Heightened Def Con from 1.20505e-06 to 1.20505e-06
Heightened Def Con from 1.20519e-06 to 1.20519e-06
Heightened Def Con from 1.20713e-06 to 1.20713e-06
Heightened Def Con from 1.25573e-06 to 1.25573e-06
Heightened Def Con from 1.26406e-06 to 1.26406e-06
Heightened Def Con from 1.26406e-06 to 1.26406e-06
Heightened Def Con from 1.26406e-06 to 1.26406e-06
Heightened Def Con from 1.26406e-06 to 1.26406e-06
Heightened Def Con from 1.3234e-06 ++++to 1.3234e-06
Heightened Def Con from 1.34351e-06 ++++to 1.34351e-06
Heightened Def Con from 1.3724e-06 to 1.3724e-06
Heightened Def Con from 1.3952e-06 to 1.3952e-06
Heightened Def Con from 1.40946e-06 to 1.40946e-06
Heightened Def Con from 1.40946e-06 to 1.40946e-06
Heightened Def Con from 1.40946e-06 to 1.40946e-06
Heightened Def Con from 1.40946e-06 +++++to 1.40946e-06
Heightened Def Con from 1.41555e-06 +++to 1.41555e-06
Heightened Def Con from 1.41555e-06 +++to 1.41555e-06
Heightened Def Con from 1.45573e-06 to 1.45573e-06
Heightened Def Con from 1.46633e-06 to 1.46633e-06
Heightened Def Con from 1.46633e-06 to 1.46633e-06
Heightened Def Con from 1.49743e-06 to 1.49743e-06
Heightened Def Con from 1.49743e-06 to 1.49743e-06
Heightened Def Con from 1.49743e-06 to 1.49743e-06
Heightened Def Con from 1.49743e-06 ++++to 1.49743e-06
Heightened Def Con from 1.52978e-06 to 1.52978e-06
Heightened Def Con from 1.52978e-06 ++to 1.52978e-06
Heightened Def Con from 1.52978e-06 +++to 1.52978e-06
Heightened Def Con from 1.54191e-06 to 1.54191e-06
Heightened Def Con from 1.54191e-06 to 1.54191e-06
Heightened Def Con from 1.54191e-06 to 1.54191e-06
Heightened Def Con from 1.54799e-06 to 1.54799e-06
Heightened Def Con from 1.56255e-06 to 1.56255e-06
Heightened Def Con from 1.56255e-06 ++to 1.56255e-06
Heightened Def Con from 1.56255e-06 ++++to 1.56255e-06
Heightened Def Con from 1.56451e-06 to 1.56451e-06
Heightened Def Con from 1.58323e-06 to 1.58323e-06
Heightened Def Con from 1.58323e-06 +++to 1.58323e-06
Heightened Def Con from 1.60787e-06 to 1.60787e-06
Heightened Def Con from 1.60787e-06 to 1.60787e-06
Heightened Def Con from 1.60986e-06 to 1.60986e-06
Heightened Def Con from 1.62597e-06 to 1.62597e-06
Heightened Def Con from 1.62597e-06 ++to 1.62597e-06
Heightened Def Con from 1.62597e-06 +++to 1.62597e-06
Heightened Def Con from 1.62597e-06 to 1.62597e-06
Heightened Def Con from 1.675e-06 to 1.675e-06
Heightened Def Con from 1.675e-06 ++++to 1.675e-06
Heightened Def Con from 1.70519e-06 to 1.70519e-06
Heightened Def Con from 1.71407e-06 to 1.71407e-06
Heightened Def Con from 1.71407e-06 ++to 1.71407e-06
Heightened Def Con from 1.71407e-06 to 1.71407e-06
Heightened Def Con from 1.71607e-06 to 1.71607e-06
Heightened Def Con from 1.71607e-06 to 1.71607e-06
Heightened Def Con from 1.71607e-06 +++++to 1.71607e-06
Heightened Def Con from 1.7241e-06 to 1.7241e-06
Heightened Def Con from 1.7241e-06 to 1.7241e-06
Heightened Def Con from 1.7241e-06 to 1.7241e-06
Heightened Def Con from 1.74427e-06 to 1.74427e-06
Heightened Def Con from 1.74427e-06 to 1.74427e-06
Heightened Def Con from 1.75878e-06 to 1.75878e-06
Heightened Def Con from 1.80009e-06 to 1.80009e-06
Heightened Def Con from 1.83232e-06 to 1.83232e-06
Heightened Def Con from 1.83232e-06 to 1.83232e-06
Heightened Def Con from 1.83232e-06 +++to 1.83232e-06
Heightened Def Con from 1.83232e-06 to 1.83232e-06
Heightened Def Con from 1.84036e-06 to 1.84036e-06
Heightened Def Con from 1.84036e-06 to 1.84036e-06
Heightened Def Con from 1.89818e-06 to 1.89818e-06
Heightened Def Con from 1.89818e-06 to 1.89818e-06
Heightened Def Con from 1.89818e-06 to 1.89818e-06
Heightened Def Con from 1.90016e-06 +++to 1.90016e-06
Heightened Def Con from 1.90016e-06 to 1.90016e-06
Heightened Def Con from 1.90227e-06 to 1.90227e-06
Heightened Def Con from 1.90519e-06 to 1.90519e-06
Heightened Def Con from 1.90834e-06 to 1.90834e-06
Heightened Def Con from 1.90834e-06 +++++to 1.90834e-06
Heightened Def Con from 1.92839e-06 to 1.92839e-06
Heightened Def Con from 1.94044e-06 to 1.94044e-06
Heightened Def Con from 1.94044e-06 ++++to 1.94044e-06
Heightened Def Con from 1.95573e-06 to 1.95573e-06
Heightened Def Con from 1.96928e-06 to 1.96928e-06
Heightened Def Con from 1.96928e-06 +++to 1.96928e-06
Heightened Def Con from 1.99212e-06 to 1.99212e-06
Heightened Def Con from 1.99212e-06 to 1.99212e-06
Heightened Def Con from 1.99624e-06 to 1.99624e-06
Heightened Def Con from 1.99624e-06 ++to 1.99624e-06
Heightened Def Con from 2.00643e-06 ++to 2.00643e-06
Heightened Def Con from 2.00643e-06 ++to 2.00643e-06
Heightened Def Con from 2.00643e-06 to 2.00643e-06
Heightened Def Con from 2.01454e-06 to 2.01454e-06
Heightened Def Con from 2.01858e-06 ++to 2.01858e-06
Heightened Def Con from 2.01858e-06 to 2.01858e-06
Heightened Def Con from 2.01858e-06 to 2.01858e-06
Heightened Def Con from 2.04271e-06 +++to 2.04271e-06
Heightened Def Con from 2.04271e-06 to 2.04271e-06
Heightened Def Con from 2.04271e-06 to 2.04271e-06
Heightened Def Con from 2.04271e-06 ++++++to 2.04271e-06
Heightened Def Con from 2.06747e-06 to 2.06747e-06
Heightened Def Con from 2.06747e-06 to 2.06747e-06
Heightened Def Con from 2.10055e-06 to 2.10055e-06
Heightened Def Con from 2.13685e-06 to 2.13685e-06
Heightened Def Con from 2.13685e-06 to 2.13685e-06
Heightened Def Con from 2.15121e-06 +++to 2.15121e-06
Heightened Def Con from 2.15121e-06 ++++to 2.15121e-06
Heightened Def Con from 2.15121e-06 ++++to 2.15121e-06
Heightened Def Con from 2.18216e-06 ++to 2.18216e-06
Heightened Def Con from 2.18216e-06 +to 2.18216e-06
Heightened Def Con from 2.18216e-06 to 2.18216e-06
Heightened Def Con from 2.19043e-06 to 2.19043e-06
Heightened Def Con from 2.19043e-06 to 2.19043e-06
Heightened Def Con from 2.20489e-06 to 2.20489e-06
Heightened Def Con from 2.20489e-06 +++to 2.20489e-06
Heightened Def Con from 2.20489e-06 ++to 2.20489e-06
Heightened Def Con from 2.20688e-06 ++++to 2.20688e-06
Heightened Def Con from 2.20688e-06 to 2.20688e-06
Heightened Def Con from 2.20688e-06 to 2.20688e-06
Heightened Def Con from 2.20688e-06 to 2.20688e-06
Heightened Def Con from 2.22299e-06 to 2.22299e-06
Heightened Def Con from 2.22299e-06 +++to 2.22299e-06
Heightened Def Con from 2.22701e-06 +++to 2.22701e-06
Heightened Def Con from 2.23103e-06 ++++to 2.23103e-06
Heightened Def Con from 2.24313e-06 to 2.24313e-06
Heightened Def Con from 2.24313e-06 ++to 2.24313e-06
Heightened Def Con from 2.25573e-06 +to 2.25573e-06
Heightened Def Con from 2.2742e-06 to 2.2742e-06
Heightened Def Con from 2.2742e-06 +++to 2.2742e-06
Heightened Def Con from 2.2742e-06 +++to 2.2742e-06
Heightened Def Con from 2.30089e-06 to 2.30089e-06
Heightened Def Con from 2.30519e-06 to 2.30519e-06
Heightened Def Con from 2.31516e-06 +to 2.31516e-06
Heightened Def Con from 2.31516e-06 +++++to 2.31516e-06
Heightened Def Con from 2.33523e-06 to 2.33523e-06
Heightened Def Con from 2.35574e-06 to 2.35574e-06
Heightened Def Con from 2.35574e-06 to 2.35574e-06
Heightened Def Con from 2.35987e-06 to 2.35987e-06
Heightened Def Con from 2.37644e-06 to 2.37644e-06
Heightened Def Con from 2.38472e-06 to 2.38472e-06
Heightened Def Con from 2.38472e-06 to 2.38472e-06
Heightened Def Con from 2.38472e-06 ++++to 2.38472e-06
Heightened Def Con from 2.38472e-06 ++++to 2.38472e-06
Heightened Def Con from 2.38472e-06 ++++to 2.38472e-06
Heightened Def Con from 2.39707e-06 to 2.39707e-06
Heightened Def Con from 2.39707e-06 to 2.39707e-06
Heightened Def Con from 2.42341e-06 to 2.42341e-06
Heightened Def Con from 2.45573e-06 to 2.45573e-06
Heightened Def Con from 2.46217e-06 to 2.46217e-06
Heightened Def Con from 2.46217e-06 to 2.46217e-06
Heightened Def Con from 2.48068e-06 +++to 2.48068e-06
Heightened Def Con from 2.48286e-06 +to 2.48286e-06
Heightened Def Con from 2.48286e-06 to 2.48286e-06
Heightened Def Con from 2.49935e-06 to 2.49935e-06
Heightened Def Con from 2.50541e-06 to 2.50541e-06
Heightened Def Con from 2.50948e-06 to 2.50948e-06
Heightened Def Con from 2.51557e-06 ++to 2.51557e-06
Heightened Def Con from 2.51757e-06 to 2.51757e-06
Heightened Def Con from 2.53162e-06 to 2.53162e-06
Heightened Def Con from 2.53162e-06 ++to 2.53162e-06
Heightened Def Con from 2.53162e-06 +++to 2.53162e-06
Heightened Def Con from 2.5995e-06 to 2.5995e-06
Heightened Def Con from 2.5995e-06 ++to 2.5995e-06
Heightened Def Con from 2.5995e-06 to 2.5995e-06
Heightened Def Con from 2.5995e-06 +++to 2.5995e-06
Heightened Def Con from 2.5995e-06 to 2.5995e-06
Heightened Def Con from 2.63982e-06 to 2.63982e-06
Heightened Def Con from 2.63982e-06 ++++to 2.63982e-06
Heightened Def Con from 2.66253e-06 to 2.66253e-06
Heightened Def Con from 2.66253e-06 to 2.66253e-06
Heightened Def Con from 2.66253e-06 to 2.66253e-06
Heightened Def Con from 2.68322e-06 to 2.68322e-06
Heightened Def Con from 2.68322e-06 to 2.68322e-06
Heightened Def Con from 2.70781e-06 ++to 2.70781e-06
Heightened Def Con from 2.70781e-06 to 2.70781e-06
Heightened Def Con from 2.72391e-06 ++to 2.72391e-06
Heightened Def Con from 2.72591e-06 +++to 2.72591e-06
Heightened Def Con from 2.80387e-06 ++to 2.80387e-06
Heightened Def Con from 2.80519e-06 to 2.80519e-06
Heightened Def Con from 2.81201e-06 to 2.81201e-06
Heightened Def Con from 2.81201e-06 +++++to 2.81201e-06
Heightened Def Con from 2.82006e-06 to 2.82006e-06
Heightened Def Con from 2.82806e-06 to 2.82806e-06
Heightened Def Con from 2.82806e-06 to 2.82806e-06
Heightened Def Con from 2.91223e-06 to 2.91223e-06
Heightened Def Con from 2.91223e-06 to 2.91223e-06
Heightened Def Con from 2.91223e-06 ++to 2.91223e-06
Heightened Def Con from 2.91223e-06 to 2.91223e-06
Heightened Def Con from 2.92428e-06 to 2.92428e-06
Heightened Def Con from 2.9283e-06 to 2.9283e-06
Heightened Def Con from 2.9283e-06 ++to 2.9283e-06
Heightened Def Con from 2.9283e-06 to 2.9283e-06
Heightened Def Con from 2.9303e-06 to 2.9303e-06
Heightened Def Con from 2.9303e-06 to 2.9303e-06
Heightened Def Con from 2.96716e-06 to 2.96716e-06
Heightened Def Con from 2.96716e-06 to 2.96716e-06
Heightened Def Con from 3.01451e-06 to 3.01451e-06
Heightened Def Con from 3.01451e-06 to 3.01451e-06
Heightened Def Con from 3.02656e-06 to 3.02656e-06
Heightened Def Con from 3.02856e-06 +to 3.02856e-06
Heightened Def Con from 3.02856e-06 to 3.02856e-06
Heightened Def Con from 3.07579e-06 to 3.07579e-06
Heightened Def Con from 3.07579e-06 to 3.07579e-06
Heightened Def Con from 3.07579e-06 to 3.07579e-06
Heightened Def Con from 3.07579e-06 ++to 3.07579e-06
Heightened Def Con from 3.07579e-06 ++++to 3.07579e-06
Heightened Def Con from 3.09231e-06 to 3.09231e-06
Heightened Def Con from 3.09231e-06 +++to 3.09231e-06
Heightened Def Con from 3.09231e-06 to 3.09231e-06
Heightened Def Con from 3.09642e-06 to 3.09642e-06
Heightened Def Con from 3.09642e-06 to 3.09642e-06
Heightened Def Con from 3.09642e-06 ++to 3.09642e-06
Heightened Def Con from 3.09642e-06 ++++to 3.09642e-06
Heightened Def Con from 3.10053e-06 to 3.10053e-06
Heightened Def Con from 3.10252e-06 to 3.10252e-06
Heightened Def Con from 3.10252e-06 to 3.10252e-06
Heightened Def Con from 3.10252e-06 to 3.10252e-06
Heightened Def Con from 3.10868e-06 to 3.10868e-06
Heightened Def Con from 3.10868e-06 to 3.10868e-06
Heightened Def Con from 3.11675e-06 +to 3.11675e-06
Heightened Def Con from 3.11675e-06 to 3.11675e-06
Heightened Def Con from 3.11675e-06 +++++to 3.11675e-06
Heightened Def Con from 3.11675e-06 to 3.11675e-06
Heightened Def Con from 3.12276e-06 to 3.12276e-06
Heightened Def Con from 3.13079e-06 to 3.13079e-06
Heightened Def Con from 3.13079e-06 +++to 3.13079e-06
Heightened Def Con from 3.13079e-06 ++to 3.13079e-06
Heightened Def Con from 3.13079e-06 to 3.13079e-06
Heightened Def Con from 3.13686e-06 ++to 3.13686e-06
Heightened Def Con from 3.13686e-06 ++++to 3.13686e-06
Heightened Def Con from 3.13686e-06 +to 3.13686e-06
Heightened Def Con from 3.15737e-06 +to 3.15737e-06
Heightened Def Con from 3.15737e-06 to 3.15737e-06
Heightened Def Con from 3.15737e-06 to 3.15737e-06
Heightened Def Con from 3.16762e-06 +++to 3.16762e-06
Heightened Def Con from 3.16762e-06 to 3.16762e-06
Heightened Def Con from 3.16762e-06 +++++to 3.16762e-06
Heightened Def Con from 3.16981e-06 to 3.16981e-06
Heightened Def Con from 3.16981e-06 to 3.16981e-06
Heightened Def Con from 3.16981e-06 to 3.16981e-06
Heightened Def Con from 3.18222e-06 +++to 3.18222e-06
Heightened Def Con from 3.18222e-06 to 3.18222e-06
Heightened Def Con from 3.18222e-06 +++to 3.18222e-06
Heightened Def Con from 3.22894e-06 to 3.22894e-06
Heightened Def Con from 3.22894e-06 to 3.22894e-06
Heightened Def Con from 3.22894e-06 to 3.22894e-06
Heightened Def Con from 3.24101e-06 ++to 3.24101e-06
Heightened Def Con from 3.24508e-06 to 3.24508e-06
Heightened Def Con from 3.25132e-06 to 3.25132e-06
Heightened Def Con from 3.27401e-06 to 3.27401e-06
Heightened Def Con from 3.28032e-06 to 3.28032e-06
Heightened Def Con from 3.29054e-06 +to 3.29054e-06
Heightened Def Con from 3.29467e-06 to 3.29467e-06
Heightened Def Con from 3.30905e-06 to 3.30905e-06
Heightened Def Con from 3.30905e-06 to 3.30905e-06
Heightened Def Con from 3.3231e-06 to 3.3231e-06
Heightened Def Con from 3.3231e-06 to 3.3231e-06
Heightened Def Con from 3.3231e-06 to 3.3231e-06
Heightened Def Con from 3.3231e-06 ++++++to 3.3231e-06
Heightened Def Con from 3.3473e-06 to 3.3473e-06
Heightened Def Con from 3.3473e-06 to 3.3473e-06
Heightened Def Con from 3.3473e-06 +++++to 3.3473e-06
Heightened Def Con from 3.34943e-06 to 3.34943e-06
Heightened Def Con from 3.34943e-06 to 3.34943e-06
Heightened Def Con from 3.34943e-06 ++to 3.34943e-06
Heightened Def Con from 3.34943e-06 +++++to 3.34943e-06
Heightened Def Con from 3.34943e-06 +++++to 3.34943e-06
Heightened Def Con from 3.37428e-06 to 3.37428e-06
Heightened Def Con from 3.37428e-06 ++to 3.37428e-06
Heightened Def Con from 3.40519e-06 to 3.40519e-06
Heightened Def Con from 3.43531e-06 to 3.43531e-06
Heightened Def Con from 3.43531e-06 to 3.43531e-06
Heightened Def Con from 3.45573e-06 to 3.45573e-06
Heightened Def Con from 3.50939e-06 to 3.50939e-06
Heightened Def Con from 3.51343e-06 ++to 3.51343e-06
Heightened Def Con from 3.51343e-06 to 3.51343e-06
Heightened Def Con from 3.5295e-06 ++to 3.5295e-06
Heightened Def Con from 3.54158e-06 to 3.54158e-06
Heightened Def Con from 3.54158e-06 ++to 3.54158e-06
Heightened Def Con from 3.55573e-06 to 3.55573e-06
Heightened Def Con from 3.58294e-06 to 3.58294e-06
Heightened Def Con from 3.60957e-06 +++++to 3.60957e-06
Heightened Def Con from 3.62771e-06 to 3.62771e-06
Heightened Def Con from 3.64998e-06 to 3.64998e-06
Heightened Def Con from 3.67283e-06 to 3.67283e-06
Heightened Def Con from 3.67283e-06 ++to 3.67283e-06
Heightened Def Con from 3.67283e-06 ++++to 3.67283e-06
Heightened Def Con from 3.67697e-06 to 3.67697e-06
Heightened Def Con from 3.67697e-06 to 3.67697e-06
Heightened Def Con from 3.72392e-06 to 3.72392e-06
Heightened Def Con from 3.75027e-06 to 3.75027e-06
Heightened Def Con from 3.79366e-06 to 3.79366e-06
Heightened Def Con from 3.80807e-06 to 3.80807e-06
Heightened Def Con from 3.80807e-06 to 3.80807e-06
Heightened Def Con from 3.80807e-06 ++to 3.80807e-06
Heightened Def Con from 3.80807e-06 +++to 3.80807e-06
Heightened Def Con from 3.82212e-06 to 3.82212e-06
Heightened Def Con from 3.86285e-06 to 3.86285e-06
Heightened Def Con from 3.86285e-06 to 3.86285e-06
Heightened Def Con from 3.86285e-06 to 3.86285e-06
Heightened Def Con from 3.88569e-06 to 3.88569e-06
Heightened Def Con from 3.91629e-06 to 3.91629e-06
Heightened Def Con from 3.92835e-06 to 3.92835e-06
Heightened Def Con from 3.94252e-06 to 3.94252e-06
Heightened Def Con from 3.94252e-06 ++to 3.94252e-06
Heightened Def Con from 3.95072e-06 to 3.95072e-06
Heightened Def Con from 3.95072e-06 ++++to 3.95072e-06
Heightened Def Con from 3.95072e-06 ++++to 3.95072e-06
Heightened Def Con from 3.95573e-06 to 3.95573e-06
Heightened Def Con from 3.98794e-06 to 3.98794e-06
Heightened Def Con from 3.99404e-06 to 3.99404e-06
Heightened Def Con from 3.99404e-06 ++++to 3.99404e-06
Heightened Def Con from 3.99404e-06 to 3.99404e-06

Date: Thu Sep 19 14:37:31 2024
Total elapsed time: 5.004 seconds.

tnom = 27
temp = 27
method = modified trap
totiter = 560387
traniter = 560361
tranpoints = 91704
accept = 59230
rejected = 33401
matrix size = 112
fillins = 102
solver = Normal
Avg thread counts: 1.0/1.0/1.0/1.0
Matrix Compiler1: 10.10 KB object code size  1.7/1.4/[0.7]
Matrix Compiler2: 10.74 KB object code size  1.0/1.1/[0.6]

